Version 4
SHEET 1 2432 680
WIRE -800 -560 -800 -640
WIRE -688 -560 -800 -560
WIRE -560 -544 -624 -544
WIRE -464 -544 -560 -544
WIRE -688 -528 -720 -528
WIRE -800 -512 -800 -560
WIRE -1488 -464 -1760 -464
WIRE -1392 -464 -1488 -464
WIRE -1312 -464 -1392 -464
WIRE -720 -448 -720 -528
WIRE -560 -448 -560 -544
WIRE -560 -448 -720 -448
WIRE -800 -416 -800 -432
WIRE -1760 -320 -1760 -464
WIRE -1760 -224 -1760 -240
WIRE 1168 -144 1104 -144
WIRE 1408 -144 1232 -144
WIRE -112 -112 -208 -112
WIRE 16 -112 -48 -112
WIRE 480 -112 16 -112
WIRE 480 -96 480 -112
WIRE 496 -96 480 -96
WIRE 496 -64 464 -64
WIRE -96 -16 -208 -16
WIRE 16 -16 16 -32
WIRE 16 -16 -16 -16
WIRE 384 -16 384 -64
WIRE 384 -16 288 -16
WIRE 928 -16 672 -16
WIRE 992 -16 928 -16
WIRE 1104 -16 1104 -144
WIRE 1104 -16 1072 -16
WIRE 1120 -16 1104 -16
WIRE 1216 -16 1200 -16
WIRE 1280 -16 1216 -16
WIRE 16 0 16 -16
WIRE 1408 0 1408 -144
WIRE 1408 0 1344 0
WIRE 1472 0 1408 0
WIRE 1520 0 1472 0
WIRE 1536 0 1520 0
WIRE 928 16 928 -16
WIRE 1280 16 1248 16
WIRE 1472 16 1472 0
WIRE 384 32 384 -16
WIRE 496 32 464 32
WIRE 1216 48 1216 -16
WIRE 496 64 464 64
WIRE -112 96 -208 96
WIRE 16 96 16 80
WIRE 16 96 -48 96
WIRE 464 96 464 64
WIRE 464 96 16 96
WIRE 608 112 608 48
WIRE 768 112 608 112
WIRE 832 112 768 112
WIRE 928 112 928 96
WIRE 928 112 896 112
WIRE 1248 112 1248 16
WIRE 1472 112 1472 96
WIRE 1472 112 1248 112
WIRE 1472 128 1472 112
WIRE 928 224 928 112
WIRE 928 224 896 224
WIRE 288 240 288 -16
WIRE 288 240 208 240
WIRE 768 240 768 112
WIRE 832 240 768 240
WIRE 1472 240 1472 208
WIRE -128 256 -224 256
WIRE -48 256 -128 256
WIRE 32 256 16 256
WIRE 48 256 32 256
WIRE 144 256 128 256
WIRE 240 272 208 272
WIRE 128 320 128 256
WIRE 240 320 240 272
WIRE 240 320 128 320
WIRE 32 352 32 256
WIRE 32 352 16 352
WIRE -128 368 -128 336
WIRE -48 368 -128 368
WIRE 64 384 16 384
FLAG 528 -112 VCC
FLAG 528 80 0
FLAG 864 208 VCC
FLAG 864 272 0
FLAG 1520 0 OUT
FLAG -512 416 0
FLAG -512 336 VCC
FLAG 1312 32 VCC
FLAG 1312 -32 0
FLAG -800 -720 VCC
FLAG -800 -416 0
FLAG -656 -512 VCC
FLAG -656 -576 0
FLAG -464 -544 VCC/2
FLAG 896 256 VCC/2
FLAG 1472 240 VCC/2
FLAG 176 288 VCC
FLAG 176 224 0
FLAG -16 336 VCC
FLAG -16 400 0
FLAG -224 256 Reference
FLAG 64 384 VCC/2
FLAG -208 -16 VCC/2
FLAG -208 -112 IN+
FLAG -208 96 IN-
FLAG 1216 112 VCC/2
FLAG -1392 -464 IN+
FLAG -1488 -464 IN-
FLAG -1760 -224 Reference
SYMBOL res 480 16 R90
WINDOW 0 84 56 VBottom 2
WINDOW 3 32 56 VTop 2
SYMATTR InstName R5
SYMATTR Value {mc(50,0.05)}
SYMATTR SpiceLine tol=100
SYMBOL res 480 -80 R90
WINDOW 0 0 56 VBottom 2
WINDOW 3 -54 52 VTop 2
SYMATTR InstName R6
SYMATTR Value {mc(50,0.05)}
SYMATTR SpiceLine tol=100
SYMBOL OpAmps\\AD8604 864 176 M0
SYMATTR InstName U6
SYMBOL res 912 0 R0
SYMATTR InstName R9
SYMATTR Value {mc(32k,0.05)}
SYMBOL cap 896 96 R90
WINDOW 0 0 32 VBottom 2
WINDOW 3 32 32 VTop 2
SYMATTR InstName C4
SYMATTR Value {mc(0.47u,0.1)}
SYMBOL OpAmps\\AD8604 1312 64 M180
WINDOW 3 -46 136 Left 2
SYMATTR InstName U2
SYMBOL res 1088 -32 R90
WINDOW 0 0 56 VBottom 2
WINDOW 3 32 56 VTop 2
SYMATTR InstName R10
SYMATTR Value {mc(68k,0.05)}
SYMBOL res 1216 -32 R90
WINDOW 0 0 56 VBottom 2
WINDOW 3 32 56 VTop 2
SYMATTR InstName R11
SYMATTR Value {mc(140k,0.05)}
SYMBOL cap 1168 -128 R270
WINDOW 0 32 32 VTop 2
WINDOW 3 0 32 VBottom 2
SYMATTR InstName C5
SYMATTR Value {mc(3.3n,0.1)}
SYMBOL cap 1232 112 R180
WINDOW 0 24 56 Left 2
WINDOW 3 24 8 Left 2
SYMATTR InstName C6
SYMATTR Value {mc(3.3n,0.1)}
SYMBOL voltage -512 320 R0
WINDOW 123 0 0 Left 0
WINDOW 39 0 0 Left 0
SYMATTR InstName V3
SYMATTR Value 3.3
SYMBOL OpAmps\\AD8226 528 -16 R0
WINDOW 3 -1 -16 Left 2
SYMATTR InstName U1
SYMBOL res -816 -736 R0
SYMATTR InstName R7
SYMATTR Value 100k
SYMBOL res -816 -528 R0
SYMATTR InstName R8
SYMATTR Value 100k
SYMBOL res 1488 112 R180
WINDOW 0 36 76 Left 2
WINDOW 3 36 40 Left 2
SYMATTR InstName R12
SYMATTR Value {mc(1.4k,0.05)}
SYMBOL res 1488 224 R180
WINDOW 0 36 76 Left 2
WINDOW 3 36 40 Left 2
SYMATTR InstName R14
SYMATTR Value {mc(1.4k,0.05)}
SYMBOL cap 16 240 R90
WINDOW 0 0 32 VBottom 2
WINDOW 3 32 32 VTop 2
SYMATTR InstName C3
SYMATTR Value {mc(10n,0.1)}
SYMBOL res -144 240 R0
SYMATTR InstName R15
SYMATTR Value {mc(510k,0.05)}
SYMBOL res 144 240 R90
WINDOW 0 0 56 VBottom 2
WINDOW 3 32 56 VTop 2
SYMATTR InstName R16
SYMATTR Value {mc(10k,0.05)}
SYMBOL OpAmps\\AD8604 -16 304 M0
SYMATTR InstName U4
SYMBOL OpAmps\\AD8604 176 320 R180
WINDOW 3 -46 136 Left 2
SYMATTR InstName U5
SYMBOL OpAmps\\AD8604 -656 -480 M180
WINDOW 3 -46 136 Left 2
SYMATTR InstName U7
SYMBOL cap -48 -128 R90
WINDOW 0 0 32 VBottom 2
WINDOW 3 32 32 VTop 2
SYMATTR InstName C7
SYMATTR Value {mc(0.47u,0.1)}
SYMBOL cap -48 80 R90
WINDOW 0 0 32 VBottom 2
WINDOW 3 32 32 VTop 2
SYMATTR InstName C8
SYMATTR Value {mc(0.47u,0.1)}
SYMBOL res 0 -128 R0
SYMATTR InstName R17
SYMATTR Value {mc(32k,0.05)}
SYMBOL res 0 -16 R0
SYMATTR InstName R18
SYMATTR Value {mc(32k,0.05)}
SYMBOL res 0 -32 R90
WINDOW 0 0 56 VBottom 2
WINDOW 3 32 56 VTop 2
SYMATTR InstName R19
SYMATTR Value {mc(100k,0.05)}
SYMBOL voltage -1760 -336 R0
WINDOW 123 24 44 Left 2
WINDOW 39 0 0 Left 0
WINDOW 3 24 72 Left 2
SYMATTR Value2 AC 1
SYMATTR Value SINE(0 0.001 180)
SYMATTR InstName V2
TEXT -712 520 Left 2 !.ac oct 30 1 1k
TEXT -712 568 Left 2 !.step param run 1 10 1
TEXT -704 624 Left 2 !.save V(OUT)
