Version 4
SHEET 1 2432 680
WIRE -800 -560 -800 -640
WIRE -688 -560 -800 -560
WIRE -560 -544 -624 -544
WIRE -464 -544 -560 -544
WIRE -688 -528 -720 -528
WIRE -800 -512 -800 -560
WIRE -720 -448 -720 -528
WIRE -560 -448 -560 -544
WIRE -560 -448 -720 -448
WIRE -800 -416 -800 -432
WIRE 1168 -144 1104 -144
WIRE 1408 -144 1232 -144
WIRE -544 -128 -848 -128
WIRE -240 -112 -304 -112
WIRE -128 -112 -240 -112
WIRE 16 -112 -64 -112
WIRE 480 -112 16 -112
WIRE 480 -96 480 -112
WIRE 496 -96 480 -96
WIRE -848 -64 -848 -128
WIRE -544 -64 -656 -64
WIRE 496 -64 464 -64
WIRE 928 -16 672 -16
WIRE 992 -16 928 -16
WIRE 1104 -16 1104 -144
WIRE 1104 -16 1072 -16
WIRE 1120 -16 1104 -16
WIRE 1216 -16 1200 -16
WIRE 1280 -16 1216 -16
WIRE -240 0 -240 -32
WIRE 16 0 16 -32
WIRE 16 0 -240 0
WIRE 1408 0 1408 -144
WIRE 1408 0 1344 0
WIRE 1472 0 1408 0
WIRE 1520 0 1472 0
WIRE 1536 0 1520 0
WIRE -736 16 -848 16
WIRE -656 16 -736 16
WIRE -240 16 -240 0
WIRE 16 16 16 0
WIRE 928 16 928 -16
WIRE 1280 16 1248 16
WIRE 1472 16 1472 0
WIRE 384 32 384 -64
WIRE 496 32 464 32
WIRE 1216 48 1216 -16
WIRE 496 64 464 64
WIRE -240 96 -304 96
WIRE -128 96 -240 96
WIRE 16 96 -64 96
WIRE 464 96 464 64
WIRE 464 96 16 96
WIRE 608 112 608 48
WIRE 768 112 608 112
WIRE 832 112 768 112
WIRE 928 112 928 96
WIRE 928 112 896 112
WIRE 1248 112 1248 16
WIRE 1472 112 1472 96
WIRE 1472 112 1248 112
WIRE 1472 128 1472 112
WIRE -736 144 -736 16
WIRE 928 224 928 112
WIRE 928 224 896 224
WIRE 768 240 768 112
WIRE 832 240 768 240
WIRE 1472 240 1472 208
WIRE -736 256 -736 224
WIRE -736 384 -736 336
FLAG 528 -112 VCC
FLAG 528 80 0
FLAG -304 -112 IN+
FLAG -304 96 IN-
FLAG 864 208 VCC
FLAG 864 272 0
FLAG 1216 112 0
FLAG 1520 0 OUT
FLAG -544 -128 IN+
FLAG -512 416 0
FLAG -512 336 VCC
FLAG -544 -64 IN-
FLAG 1312 32 VCC
FLAG 1312 -32 0
FLAG -736 384 0
FLAG -800 -720 VCC
FLAG -800 -416 0
FLAG -656 -512 VCC
FLAG -656 -576 0
FLAG -464 -544 VCC/2
FLAG 896 256 VCC/2
FLAG 1472 240 VCC/2
SYMBOL res -256 -128 R0
SYMATTR InstName R1
SYMATTR Value 4.7e6
SYMBOL res -256 0 R0
SYMATTR InstName R2
SYMATTR Value 4.7e6
SYMBOL res 0 -128 R0
SYMATTR InstName R3
SYMATTR Value 4.7e6
SYMBOL res 0 0 R0
SYMATTR InstName R4
SYMATTR Value 4.7e6
SYMBOL cap -64 -128 R90
WINDOW 0 0 32 VBottom 2
WINDOW 3 32 32 VTop 2
SYMATTR InstName C1
SYMATTR Value 15n
SYMBOL cap -64 80 R90
WINDOW 0 0 32 VBottom 2
WINDOW 3 32 32 VTop 2
SYMATTR InstName C2
SYMATTR Value 15n
SYMBOL res 480 16 R90
WINDOW 0 84 56 VBottom 2
WINDOW 3 32 56 VTop 2
SYMATTR InstName R5
SYMATTR Value 2.75k
SYMBOL res 480 -80 R90
WINDOW 0 0 56 VBottom 2
WINDOW 3 -54 52 VTop 2
SYMATTR InstName R6
SYMATTR Value 2.75k
SYMBOL OpAmps\\AD8604 864 176 M0
SYMATTR InstName U6
SYMBOL res 912 0 R0
SYMATTR InstName R9
SYMATTR Value 1e6
SYMBOL cap 896 96 R90
WINDOW 0 0 32 VBottom 2
WINDOW 3 32 32 VTop 2
SYMATTR InstName C4
SYMATTR Value 1µ
SYMBOL OpAmps\\AD8604 1312 64 M180
WINDOW 3 -46 136 Left 2
SYMATTR InstName U2
SYMBOL res 1088 -32 R90
WINDOW 0 0 56 VBottom 2
WINDOW 3 32 56 VTop 2
SYMATTR InstName R10
SYMATTR Value 9.69k
SYMBOL res 1216 -32 R90
WINDOW 0 0 56 VBottom 2
WINDOW 3 32 56 VTop 2
SYMATTR InstName R11
SYMATTR Value 67.2k
SYMBOL cap 1168 -128 R270
WINDOW 0 32 32 VTop 2
WINDOW 3 0 32 VBottom 2
SYMATTR InstName C5
SYMATTR Value 3.3n
SYMBOL cap 1232 112 R180
WINDOW 0 24 56 Left 2
WINDOW 3 24 8 Left 2
SYMATTR InstName C6
SYMATTR Value 47n
SYMBOL voltage -512 320 R0
WINDOW 123 0 0 Left 0
WINDOW 39 0 0 Left 0
SYMATTR InstName V3
SYMATTR Value 3.3
SYMBOL voltage -848 -80 R0
WINDOW 123 24 44 Left 2
WINDOW 39 0 0 Left 0
WINDOW 3 -224 46 Left 2
SYMATTR Value2 AC 1
SYMATTR Value SINE(0 0.0005 180)
SYMATTR InstName V4
SYMBOL res -752 128 R0
SYMATTR InstName R13
SYMATTR Value 100
SYMBOL voltage -736 240 R0
WINDOW 123 0 0 Left 0
WINDOW 39 0 0 Left 0
SYMATTR InstName V5
SYMATTR Value SINE(0 0 50)
SYMBOL voltage -656 -80 R0
WINDOW 123 24 44 Left 2
WINDOW 39 0 0 Left 0
WINDOW 3 -54 167 Left 2
SYMATTR Value2 AC 1
SYMATTR Value SINE(0 0.0005 180 0 0 180)
SYMATTR InstName V6
SYMBOL OpAmps\\AD8226 528 -16 R0
WINDOW 3 -1 -16 Left 2
SYMATTR InstName U1
SYMBOL res -816 -736 R0
SYMATTR InstName R7
SYMATTR Value 100k
SYMBOL res -816 -528 R0
SYMATTR InstName R8
SYMATTR Value 100k
SYMBOL lm358 -656 -480 M180
SYMATTR InstName U3
SYMBOL res 1488 112 R180
WINDOW 0 36 76 Left 2
WINDOW 3 36 40 Left 2
SYMATTR InstName R12
SYMATTR Value 139k
SYMBOL res 1488 224 R180
WINDOW 0 36 76 Left 2
WINDOW 3 36 40 Left 2
SYMATTR InstName R14
SYMATTR Value 1.4k
TEXT -160 -176 Left 3 ;INA and DRL circuit
TEXT -368 600 Left 2 !.tran 0.1
