Version 4
SHEET 1 2432 680
WIRE 64 -656 0 -656
WIRE 176 -656 64 -656
WIRE 320 -656 240 -656
WIRE 64 -544 64 -576
WIRE 320 -544 320 -576
WIRE 320 -544 64 -544
WIRE 64 -528 64 -544
WIRE 320 -528 320 -544
WIRE 64 -448 0 -448
WIRE 176 -448 64 -448
WIRE 320 -448 240 -448
WIRE 1104 -224 1088 -224
WIRE 1200 -224 1168 -224
WIRE 1344 -224 1200 -224
WIRE -544 -128 -848 -128
WIRE -240 -112 -304 -112
WIRE -128 -112 -240 -112
WIRE 16 -112 -64 -112
WIRE 400 -112 16 -112
WIRE 1200 -112 1200 -224
WIRE 1216 -112 1200 -112
WIRE 1344 -96 1344 -224
WIRE 1344 -96 1280 -96
WIRE 1600 -96 1344 -96
WIRE 400 -80 400 -112
WIRE 448 -80 400 -80
WIRE 992 -80 576 -80
WIRE 1088 -80 1088 -224
WIRE 1088 -80 1072 -80
WIRE 1104 -80 1088 -80
WIRE 1216 -80 1184 -80
WIRE -848 -64 -848 -128
WIRE -544 -64 -656 -64
WIRE 448 -48 384 -48
WIRE 832 -48 576 -48
WIRE 992 -48 992 -80
WIRE 608 -16 576 -16
WIRE 1184 -16 1184 -80
WIRE -240 0 -240 -32
WIRE 16 0 16 -32
WIRE 16 0 -240 0
WIRE 688 0 688 -16
WIRE 736 0 688 0
WIRE -736 16 -848 16
WIRE -656 16 -736 16
WIRE -240 16 -240 0
WIRE 16 16 16 0
WIRE 448 16 416 16
WIRE 608 16 576 16
WIRE 688 16 688 0
WIRE 832 48 832 -48
WIRE 896 48 832 48
WIRE 992 48 992 32
WIRE 992 48 960 48
WIRE 416 64 416 16
WIRE -240 96 -304 96
WIRE -128 96 -240 96
WIRE 16 96 -64 96
WIRE 384 96 384 -48
WIRE 384 96 16 96
WIRE -736 144 -736 16
WIRE 736 144 736 0
WIRE 736 144 240 144
WIRE 992 160 992 48
WIRE 992 160 960 160
WIRE 832 176 832 48
WIRE 896 176 832 176
WIRE 1088 192 960 192
WIRE 240 224 240 144
WIRE 240 224 160 224
WIRE -176 240 -272 240
WIRE -96 240 -176 240
WIRE -16 240 -32 240
WIRE 0 240 -16 240
WIRE 96 240 80 240
WIRE -736 256 -736 224
WIRE 192 256 160 256
WIRE 1088 256 1088 192
WIRE 80 304 80 240
WIRE 192 304 192 256
WIRE 192 304 80 304
WIRE -16 336 -16 240
WIRE -16 336 -32 336
WIRE -176 352 -176 320
WIRE -96 352 -176 352
WIRE 16 368 -32 368
WIRE 16 400 16 368
FLAG 448 -16 VCC
FLAG 416 64 0
FLAG 128 272 VCC
FLAG 128 208 0
FLAG -64 320 VCC
FLAG -64 384 0
FLAG -272 240 Reference
FLAG -304 -112 IN+
FLAG -304 96 IN-
FLAG 928 144 VCC
FLAG 928 208 0
FLAG 1088 336 0
FLAG 1184 48 0
FLAG 1600 -96 OUT
FLAG -544 -128 IN+
FLAG -512 416 0
FLAG -512 336 VCC
FLAG -544 -64 IN-
FLAG -736 336 Reference
FLAG 16 480 0
FLAG 1248 -128 VCC
FLAG 1248 -64 0
FLAG 0 -656 IN+
FLAG 0 -448 IN-
SYMBOL res -256 -128 R0
SYMATTR InstName R1
SYMATTR Value 4.7e6
SYMBOL res -256 0 R0
SYMATTR InstName R2
SYMATTR Value 4.7e6
SYMBOL res 0 -128 R0
SYMATTR InstName R3
SYMATTR Value 4.7e6
SYMBOL res 0 0 R0
SYMATTR InstName R4
SYMATTR Value 4.7e6
SYMBOL cap -64 -128 R90
WINDOW 0 0 32 VBottom 2
WINDOW 3 32 32 VTop 2
SYMATTR InstName C1
SYMATTR Value 15n
SYMBOL cap -64 80 R90
WINDOW 0 0 32 VBottom 2
WINDOW 3 32 32 VTop 2
SYMATTR InstName C2
SYMATTR Value 15n
SYMBOL res 704 0 R90
WINDOW 0 84 56 VBottom 2
WINDOW 3 32 56 VTop 2
SYMATTR InstName R5
SYMATTR Value 500
SYMBOL res 704 -32 R90
WINDOW 0 0 56 VBottom 2
WINDOW 3 -54 52 VTop 2
SYMATTR InstName R6
SYMATTR Value 500
SYMBOL cap -32 224 R90
WINDOW 0 0 32 VBottom 2
WINDOW 3 32 32 VTop 2
SYMATTR InstName C3
SYMATTR Value 10n
SYMBOL res -192 224 R0
SYMATTR InstName R7
SYMATTR Value 510k
SYMBOL res 96 224 R90
WINDOW 0 0 56 VBottom 2
WINDOW 3 32 56 VTop 2
SYMATTR InstName R8
SYMATTR Value 10k
SYMBOL OpAmps\\AD8604 -64 288 M0
SYMATTR InstName U4
SYMBOL OpAmps\\AD8604 128 304 R180
WINDOW 3 -46 136 Left 2
SYMATTR InstName U5
SYMBOL OpAmps\\AD8604 928 112 M0
SYMATTR InstName U6
SYMBOL INA333 512 -32 R0
SYMATTR InstName U1
SYMBOL res 976 -64 R0
SYMATTR InstName R9
SYMATTR Value 1k
SYMBOL cap 960 32 R90
WINDOW 0 0 32 VBottom 2
WINDOW 3 32 32 VTop 2
SYMATTR InstName C4
SYMATTR Value 150n
SYMBOL voltage 1088 240 R0
WINDOW 123 0 0 Left 0
WINDOW 39 0 0 Left 0
SYMATTR InstName V1
SYMATTR Value 2.5
SYMBOL OpAmps\\AD8604 1248 -160 R0
WINDOW 3 -46 136 Left 2
SYMATTR InstName U2
SYMBOL res 1088 -96 R90
WINDOW 0 0 56 VBottom 2
WINDOW 3 32 56 VTop 2
SYMATTR InstName R10
SYMATTR Value 100k
SYMBOL res 1200 -96 R90
WINDOW 0 0 56 VBottom 2
WINDOW 3 32 56 VTop 2
SYMATTR InstName R11
SYMATTR Value 100k
SYMBOL cap 1168 -240 R90
WINDOW 0 0 32 VBottom 2
WINDOW 3 32 32 VTop 2
SYMATTR InstName C5
SYMATTR Value 3.3n
SYMBOL cap 1200 48 R180
WINDOW 0 24 56 Left 2
WINDOW 3 24 8 Left 2
SYMATTR InstName C6
SYMATTR Value 3.3n
SYMBOL voltage -512 320 R0
WINDOW 123 0 0 Left 0
WINDOW 39 0 0 Left 0
SYMATTR InstName V3
SYMATTR Value 5
SYMBOL voltage -848 -80 R0
WINDOW 123 24 44 Left 2
WINDOW 39 0 0 Left 0
WINDOW 3 -224 46 Left 2
SYMATTR Value2 AC 1
SYMATTR Value SINE(0 0.001 180)
SYMATTR InstName V4
SYMBOL res -752 128 R0
SYMATTR InstName R13
SYMATTR Value 100
SYMBOL voltage -736 240 R0
WINDOW 123 0 0 Left 0
WINDOW 39 0 0 Left 0
SYMATTR InstName V5
SYMATTR Value SINE(0 0 50)
SYMBOL voltage 16 384 R0
WINDOW 123 0 0 Left 0
WINDOW 39 0 0 Left 0
SYMATTR InstName V2
SYMATTR Value 2.5
SYMBOL voltage -656 -80 R0
WINDOW 123 24 44 Left 2
WINDOW 39 0 0 Left 0
WINDOW 3 24 72 Left 2
SYMATTR Value2 AC 1
SYMATTR Value SINE(0 0.001 180 0 0 180)
SYMATTR InstName V6
SYMBOL res 48 -672 R0
SYMATTR InstName R12
SYMATTR Value 1e6
SYMBOL res 48 -544 R0
SYMATTR InstName R14
SYMATTR Value 1e6
SYMBOL res 304 -672 R0
SYMATTR InstName R15
SYMATTR Value 1e6
SYMBOL res 304 -544 R0
SYMATTR InstName R16
SYMATTR Value 1e6
SYMBOL cap 240 -672 R90
WINDOW 0 0 32 VBottom 2
WINDOW 3 32 32 VTop 2
SYMATTR InstName C7
SYMATTR Value 11n
SYMBOL cap 240 -464 R90
WINDOW 0 0 32 VBottom 2
WINDOW 3 32 32 VTop 2
SYMATTR InstName C8
SYMATTR Value 11n
TEXT -160 -176 Left 3 ;INA and DRL circuit
TEXT 272 -144 Left 2 ;Gain=22.2V/V
TEXT -368 600 Left 2 !.tran 0.1
